<?xml version="1.0" encoding="UTF-8"?>

<routes>
    <!-- Distribution of Human-Driven Passenger Vehicles -->
    <vTypeDistribution id="private">
        <vType vClass="passenger" id="passenger1" color="0.8,0.2,0.2" accel="2.6" decel="4.5" sigma="0.5" length="5.0" minGap="1.5" maxSpeed="70" probability="0.40" speedDev="0.15" guiShape="passenger/sedan"/>
        <vType vClass="passenger" id="passenger2a" color="0.8,0.8,0.8" accel="3.0" decel="4.5" sigma="0.5" length="4.5" minGap="1.5" maxSpeed="50" probability="0.20" speedDev="0.15" guiShape="passenger/hatchback"/>
        <vType vClass="passenger" id="passenger2b" color="0.2,0.2,0.8" accel="2.8" decel="4.5" sigma="0.5" length="4.5" minGap="1.0" maxSpeed="50" probability="0.20" speedDev="0.15" guiShape="passenger/hatchback"/>
        <vType vClass="passenger" id="passenger3" color="0.3,0.3,0.3" accel="2.7" decel="4.5" sigma="0.5" length="6.0" minGap="1.5" maxSpeed="70" probability="0.10" speedDev="0.15" guiShape="passenger/wagon"/>
        <vType vClass="passenger" id="passenger4" color="0.9,0.9,0.9" accel="2.4" decel="4.5" sigma="0.5" length="5.5" minGap="1.5" maxSpeed="30" probability="0.05" speedDev="0.15" guiShape="passenger/van"/>
        <vType vClass="passenger" id="passenger5" color="0.8,0.8,0.0" accel="2.3" decel="4.5" sigma="0.5" length="7.0" minGap="2.5" maxSpeed="30" probability="0.05" speedDev="0.15" guiShape="delivery"/>
    </vTypeDistribution>

    <!-- Definition of Autonomous Passenger Vehicle -->
    <vType vClass="passenger" id="autonomous_passenger" color="0,1,0"
        accel="1.5" decel="2.0" sigma="0.0" length="5.0" minGap="1.0"
        maxSpeed="70" speedDev="0.0" tau="1.0" carFollowModel="IDM"
        lcStrategic="10.0" lcCooperative="1.0" lcSpeedGain="2.0"
        guiShape="passenger/sedan">
        <param key="has.rerouting.device" value="true"/>
    </vType>

    <!-- Definition of Bus Vehicle Type -->
    <vType vClass="bus" id="bus" color="1,0.5,0" accel="2.6" decel="4.5" sigma="0.5" length="12.0" minGap="3.0" maxSpeed="30" speedDev="0.1" guiShape="bus">
        <param key="has.rerouting.device" value="false"/>
    </vType>
</routes>
